%chk=x.chk
# hf/3-21g geom=connectivity

Title Card Required

0 1
 C                 -3.97858308    0.84843491    0.00000000
 H                 -3.62192865   -0.16037509    0.00000000
 H                 -3.62191024    1.35283310   -0.87365150
 H                 -5.04858308    0.84844810    0.00000000
 C                 -3.46524086    1.57439119    1.25740497
 H                 -3.82029720    2.58376428    1.25642745
 H                 -3.82350997    1.07112275    2.13105486
 H                 -2.39524267    1.57268450    1.25838372

 1 2 1.0 3 1.0 4 1.0 5 1.0
 2
 3
 4
 5 6 1.0 7 1.0 8 1.0
 6
 7
 8

